<?xml version="1.0" encoding="UTF-8"?>

<!-- generated on 06/03/2020 13:46:06 by Eclipse SUMO netedit Version UNKNOWN
<configuration xmlns:xsi="http://www.w3.org/2001/XMLSchema-instance" xsi:noNamespaceSchemaLocation="http://sumo.dlr.de/xsd/netconvertConfiguration.xsd">

    <input>
        <sumo-net-file value="C:\Users\dalug\Desktop\Custom%20Network\custom.net.xml"/>
    </input>

    <output>
        <output-file value="C:\Users\dalug\Desktop\Custom%20Network\custom.net.xml"/>
    </output>

    <processing>
        <geometry.min-radius.fix.railways value="false"/>
        <geometry.max-grade.fix value="false"/>
        <offset.disable-normalization value="true"/>
        <lefthand value="false"/>
    </processing>

    <junctions>
        <no-internal-links value="false"/>
        <no-turnarounds value="true"/>
        <junctions.corner-detail value="5"/>
        <junctions.limit-turn-speed value="5.5"/>
        <rectangular-lane-cut value="false"/>
    </junctions>

    <pedestrian>
        <walkingareas value="false"/>
    </pedestrian>

    <report>
        <aggregate-warnings value="5"/>
    </report>

</configuration>
-->

<net version="1.3" junctionCornerDetail="5" limitTurnSpeed="5.50" xmlns:xsi="http://www.w3.org/2001/XMLSchema-instance" xsi:noNamespaceSchemaLocation="http://sumo.dlr.de/xsd/net_file.xsd">

    <location netOffset="0.00,0.00" convBoundary="0.00,50.00,220.00,50.00" origBoundary="-10000000000.00,-10000000000.00,10000000000.00,10000000000.00" projParameter="!"/>

    <edge id=":C_0" function="internal">
        <lane id=":C_0_0" index="0" disallow="pedestrian" speed="13.89" length="5.02" shape="102.47,51.60 97.45,51.60"/>
    </edge>
    <edge id=":C_1" function="internal">
        <lane id=":C_1_0" index="0" disallow="pedestrian" speed="13.89" length="5.02" shape="97.45,48.40 102.47,48.40"/>
    </edge>
    <edge id=":C_c0" function="crossing" crossingEdges="CR RC">
        <lane id=":C_c0_0" index="0" allow="pedestrian" speed="1.00" length="6.40" width="5.00" customShape="1" shape="99.97,46.80 99.97,53.20"/>
    </edge>
    <edge id=":C_w0" function="walkingarea">
        <lane id=":C_w0_0" index="0" allow="pedestrian" speed="1.00" length="3.47" width="5.00" shape="97.45,53.20 97.45,55.20 102.47,55.20 102.47,53.20 97.47,53.20"/>
    </edge>
    <edge id=":C_w1" function="walkingarea">
        <lane id=":C_w1_0" index="0" allow="pedestrian" speed="1.00" length="3.47" width="5.00" shape="97.47,46.80 102.47,46.80 102.47,44.80 97.45,44.80 97.45,46.80"/>
    </edge>
    <edge id=":L_w0" function="walkingarea">
        <lane id=":L_w0_0" index="0" allow="pedestrian" speed="1.00" length="8.40" width="2.00" shape="0.00,46.80 0.00,44.80 0.00,55.20 0.00,53.20"/>
    </edge>
    <edge id=":R_0" function="internal">
        <lane id=":R_0_0" index="0" disallow="pedestrian" speed="13.89" length="3.00" shape="198.50,48.40 201.50,48.40"/>
    </edge>
    <edge id=":R_w0" function="walkingarea">
        <lane id=":R_w0_0" index="0" allow="pedestrian" speed="1.00" length="3.00" width="2.00" shape="201.50,46.80 201.50,44.80 198.50,44.80 198.50,46.80"/>
    </edge>

    <edge id="CL" from="C" to="L" priority="-1">
        <lane id="CL_0" index="0" allow="pedestrian" speed="13.89" length="97.45" width="2.00" shape="97.45,54.20 0.00,54.20"/>
        <lane id="CL_1" index="1"  speed="13.89" length="97.45" shape="97.45,51.60 0.00,51.60"/>
    </edge>
    <edge id="CR" from="C" to="R" priority="-1">
        <lane id="CR_0" index="0" allow="pedestrian" speed="13.89" length="96.03" width="2.00" shape="102.47,45.80 198.50,45.80"/>
        <lane id="CR_1" index="1"  speed="13.89" length="96.03" shape="102.47,48.40 198.50,48.40"/>
    </edge>
    <edge id="LC" from="L" to="C" priority="-1">
        <lane id="LC_0" index="0" allow="pedestrian" speed="13.89" length="97.45" width="2.00" shape="0.00,45.80 97.45,45.80"/>
        <lane id="LC_1" index="1"  speed="13.89" length="97.45" shape="0.00,48.40 97.45,48.40"/>
    </edge>
    <edge id="RC" from="R" to="C" priority="-1">
        <lane id="RC_0" index="0" allow="pedestrian" speed="13.89" length="96.03" width="2.00" shape="198.50,54.20 102.47,54.20"/>
        <lane id="RC_1" index="1"  speed="13.89" length="96.03" shape="198.50,51.60 102.47,51.60"/>
    </edge>
    <edge id="RDR" from="R" to="DR" priority="-1">
        <lane id="RDR_0" index="0" allow="pedestrian" speed="13.89" length="18.50" width="2.00" shape="201.50,45.80 220.00,45.80"/>
        <lane id="RDR_1" index="1" disallow="pedestrian" speed="13.89" length="18.50" shape="201.50,48.40 220.00,48.40"/>
    </edge>

    <junction id="C" type="priority" x="100.00" y="50.00" incLanes="RC_0 RC_1 LC_0 LC_1 :C_w1_0" intLanes=":C_0_0 :C_1_0 :C_c0_0" shape="97.45,55.89 102.47,55.89 102.47,44.27 97.45,44.27" customShape="1">
        <request index="0" response="100" foes="100" cont="0"/>
        <request index="1" response="100" foes="100" cont="0"/>
        <request index="2" response="000" foes="011" cont="0"/>
    </junction>
    <junction id="DR" type="dead_end" x="220.00" y="50.00" incLanes="RDR_0 RDR_1" intLanes="" shape="220.00,44.80 220.00,50.00"/>
    <junction id="L" type="dead_end" x="0.00" y="50.00" incLanes="CL_0 CL_1" intLanes="" shape="0.00,50.00 0.00,55.20 0.00,50.00"/>
    <junction id="R" type="priority" x="200.00" y="50.00" incLanes="CR_0 CR_1" intLanes=":R_0_0" shape="201.50,50.00 201.50,44.80 198.50,44.80 198.50,55.20">
        <request index="0" response="0" foes="0" cont="0"/>
    </junction>

    <connection from="CR" to="RDR" fromLane="1" toLane="1" via=":R_0_0" dir="s" state="M"/>
    <connection from="LC" to="CR" fromLane="1" toLane="1" via=":C_1_0" dir="s" state="m"/>
    <connection from="RC" to="CL" fromLane="1" toLane="1" via=":C_0_0" dir="s" state="m"/>

    <connection from=":C_0" to="CL" fromLane="0" toLane="1" dir="s" state="M"/>
    <connection from=":C_1" to="CR" fromLane="0" toLane="1" dir="s" state="M"/>
    <connection from=":R_0" to="RDR" fromLane="0" toLane="1" dir="s" state="M"/>

    <connection from=":C_c0" to=":C_w0" fromLane="0" toLane="0" dir="s" state="M"/>
    <connection from=":C_w0" to="CL" fromLane="0" toLane="0" dir="s" state="M"/>
    <connection from="RC" to=":C_w0" fromLane="0" toLane="0" dir="s" state="M"/>
    <connection from=":C_w1" to=":C_c0" fromLane="0" toLane="0" dir="s" state="M"/>
    <connection from=":C_w1" to="CR" fromLane="0" toLane="0" dir="s" state="M"/>
    <connection from="LC" to=":C_w1" fromLane="0" toLane="0" dir="s" state="M"/>
    <connection from=":L_w0" to="LC" fromLane="0" toLane="0" dir="s" state="M"/>
    <connection from="CL" to=":L_w0" fromLane="0" toLane="0" dir="s" state="M"/>
    <connection from=":R_w0" to="RDR" fromLane="0" toLane="0" dir="s" state="M"/>
    <connection from="CR" to=":R_w0" fromLane="0" toLane="0" dir="s" state="M"/>
</net>
